Version 4
SHEET 1 1156 744
WIRE 112 64 -96 64
WIRE 592 64 192 64
WIRE 1056 64 592 64
WIRE 112 112 112 64
WIRE 192 112 192 64
WIRE 512 128 320 128
WIRE 592 128 592 64
WIRE 1056 144 1056 64
WIRE 288 368 96 368
WIRE 96 432 96 368
WIRE 192 432 192 112
WIRE 192 432 176 432
WIRE 512 432 224 432
WIRE 592 432 592 128
WIRE -96 480 -96 64
WIRE -48 480 -96 480
WIRE 320 480 320 128
WIRE 368 480 320 480
WIRE -48 576 -112 576
WIRE 288 576 288 368
WIRE 368 576 288 576
WIRE -112 688 -112 576
WIRE 224 688 224 432
WIRE 224 688 -112 688
FLAG 112 304 0
FLAG 512 320 0
FLAG 512 624 0
FLAG 96 624 0
FLAG 1056 224 0
FLAG 1056 480 0
FLAG -32 256 0
FLAG 1056 400 input
FLAG 368 272 input
FLAG 368 176 input
FLAG -32 160 input
SYMBOL npn 48 112 R0
SYMATTR InstName Q1
SYMBOL npn 48 208 R0
SYMATTR InstName Q2
SYMBOL npn 448 128 R0
SYMATTR InstName Q3
SYMBOL npn 448 224 R0
SYMATTR InstName Q4
SYMBOL npn 32 432 R0
SYMATTR InstName Q5
SYMBOL npn 32 528 R0
SYMATTR InstName Q6
SYMBOL npn 448 432 R0
SYMATTR InstName Q7
SYMBOL npn 448 528 R0
SYMATTR InstName Q8
SYMBOL voltage 1056 128 R0
WINDOW 123 0 0 Left 0
WINDOW 39 0 0 Left 0
SYMATTR InstName V1
SYMATTR Value 5
SYMBOL res 608 112 R90
WINDOW 0 0 56 VBottom 2
WINDOW 3 32 56 VTop 2
SYMATTR InstName R1
SYMATTR Value 10k
SYMBOL res 208 96 R90
WINDOW 0 0 56 VBottom 2
WINDOW 3 32 56 VTop 2
SYMATTR InstName R2
SYMATTR Value 10k
SYMBOL res 192 416 R90
WINDOW 0 0 56 VBottom 2
WINDOW 3 32 56 VTop 2
SYMATTR InstName R3
SYMATTR Value 10k
SYMBOL res 608 416 R90
WINDOW 0 0 56 VBottom 2
WINDOW 3 32 56 VTop 2
SYMATTR InstName R4
SYMATTR Value 10k
SYMBOL res 64 144 R90
WINDOW 0 0 56 VBottom 2
WINDOW 3 32 56 VTop 2
SYMATTR InstName R5
SYMATTR Value 10k
SYMBOL res 64 240 R90
WINDOW 0 0 56 VBottom 2
WINDOW 3 32 56 VTop 2
SYMATTR InstName R6
SYMATTR Value 10k
SYMBOL res 464 160 R90
WINDOW 0 0 56 VBottom 2
WINDOW 3 32 56 VTop 2
SYMATTR InstName R7
SYMATTR Value 10k
SYMBOL res 464 256 R90
WINDOW 0 0 56 VBottom 2
WINDOW 3 32 56 VTop 2
SYMATTR InstName R8
SYMATTR Value 10k
SYMBOL res 464 464 R90
WINDOW 0 0 56 VBottom 2
WINDOW 3 32 56 VTop 2
SYMATTR InstName R9
SYMATTR Value 10k
SYMBOL res 464 560 R90
WINDOW 0 0 56 VBottom 2
WINDOW 3 32 56 VTop 2
SYMATTR InstName R10
SYMATTR Value 10k
SYMBOL res 48 560 R90
WINDOW 0 0 56 VBottom 2
WINDOW 3 32 56 VTop 2
SYMATTR InstName R11
SYMATTR Value 10k
SYMBOL res 48 464 R90
WINDOW 0 0 56 VBottom 2
WINDOW 3 32 56 VTop 2
SYMATTR InstName R12
SYMATTR Value 10k
SYMBOL voltage 1056 384 R0
WINDOW 123 0 0 Left 0
WINDOW 39 0 0 Left 0
SYMATTR InstName V2
SYMATTR Value 5
TEXT -112 728 Left 2 !.tran 0.1s
